CRYSTAL
PRIMVEC
      8.4668353707       0.0000000000       0.0000000000
      0.0000000000       8.4668353707       0.0000000000
      0.0000000000       0.0000000000       8.4668353707
PRIMCOORD
       2        1
H        3.8365347800       4.2334176800       4.2334176800
H        4.6303005900       4.2334176800       4.2334176800
